data/300ieee.txt
 00/00/01                      100.0  0    0 0
BUS DATA FOLLOWS                  300 ITEMS
   1 bus-1   100   1  1    1.028 5.9494 90.      49.       0.      0.       100.    1.       0.     0.      0.      0.        0
   2 bus-2   100   1  1    1.035 7.7367 56.      15.       0.      0.       100.    1.       0.     0.      0.      0.        0
   3 bus-3   100   1  1    0.997 6.6384 20.      0.        0.      0.       100.    1.       0.     0.      0.      0.        0
   4 bus-4   100   1  1    1.03  4.7079 0.       0.        0.      0.       100.    1.       0.     0.      0.      0.        0
   5 bus-5   100   1  1    1.019 4.6835 353.     130.      0.      0.       100.    1.       0.     0.      0.      0.        0
   6 bus-6   100   1  1    1.031 6.9878 120.     41.       0.      0.       100.    1.       0.     0.      0.      0.        0
   7 bus-7   100   1  1    0.993 6.1875 0.       0.        0.      0.       100.    1.       0.     0.      0.      0.        0
   8 bus-8   100   1  1  2 1.015 2.3969 58.      14.       -5.     9.941603 100.    1.0153  10.   -10.      0.      0.        0
   9 bus-9   100   1  1    1.003 2.8535 96.      43.       0.      0.       100.    1.       0.     0.      0.      0.        0
  10 bus-10  100   1  1  2 1.02  1.3467 148.     33.       -5.     20.04487 100.    1.0205  20.   -20.      0.      0.        0
  11 bus-11  100   1  1    1.005 2.4645 83.      21.       0.      0.       100.    1.       0.     0.      0.      0.        0
  12 bus-12  100   1  1    0.997 5.2141 0.       0.        0.      0.       100.    1.       0.     0.      0.      0.        0
  13 bus-13  100   1  1    0.997 -0.552 58.      10.       0.      0.       100.    1.       0.     0.      0.      0.        0
  14 bus-14  100   1  1    0.999 -4.814 160.     60.       0.      0.       100.    1.       0.     0.      0.      0.        0
  15 bus-15  100   1  1    1.034 -8.586 126.7    23.       0.      0.       100.    1.       0.     0.      0.      0.        0
  16 bus-16  100   1  1    1.031 -2.649 0.       0.        0.      0.       100.    1.       0.     0.      0.      0.        0
  17 bus-17  100   1  1    1.064 -13.1  561.     220.      0.      0.       100.    1.       0.     0.      0.      0.        0
  19 bus-19  100   1  1    0.981 1.0808 0.       0.        0.      0.       100.    1.       0.     0.      0.      0.        0
  20 bus-20  100   1  1  2 1.001 -2.46  595.     120.      -10.    20.      100.    1.001   20.   -20.      0.      0.        0
  21 bus-21  100   1  1    0.975 1.6212 77.      1.        0.      0.       100.    1.       0.     0.      0.      0.        0
  22 bus-22  100   1  1    0.996 -1.973 81.      23.       0.      0.       100.    1.       0.     0.      0.      0.        0
  23 bus-23  100   1  1    1.05  3.938  21.      7.        0.      0.       100.    1.       0.     0.      0.      0.        0
  24 bus-24  100   1  1    1.005 6.02   0.       0.        0.      0.       100.    1.       0.     0.      0.      0.        0
  25 bus-25  100   1  1    1.023 1.4393 45.      12.       0.      0.       100.    1.       0.     0.      0.      0.        0
  26 bus-26  100   1  1    0.998 -1.734 28.      9.        0.      0.       100.    1.       0.     0.      0.      0.        0
  27 bus-27  100   1  1    0.975 -4.896 69.      13.       0.      0.       100.    1.       0.     0.      0.      0.        0
  33 bus-33  100   1  1    1.024 -12.02 55.      6.        0.      0.       100.    1.       0.     0.      0.      0.        0
  34 bus-34  100   1  1    1.041 -7.937 0.       0.        0.      0.       100.    1.       0.     0.      0.      0.        0
  35 bus-35  100   1  1    0.975 -25.72 0.       0.        0.      0.       100.    1.       0.     0.      0.      0.        0
  36 bus-36  100   1  1    1.001 -22.59 0.       0.        0.      0.       100.    1.       0.     0.      0.      0.        0
  37 bus-37  100   1  1    1.02  -11.23 85.      32.       0.      0.       100.    1.       0.     0.      0.      0.        0
  38 bus-38  100   1  1    1.02  -12.56 155.     18.       0.      0.       100.    1.       0.     0.      0.      0.        0
  39 bus-39  100   1  1    1.053 -5.811 0.       0.        0.      0.       100.    1.       0.     0.      0.      0.        0
  40 bus-40  100   1  1    1.021 -12.77 46.      -21.      0.      0.       100.    1.       0.     0.      0.      0.        0
  41 bus-41  100   1  1    1.029 -10.44 86.      0.        0.      0.       100.    1.       0.     0.      0.      0.        0
  42 bus-42  100   1  1    1.044 -7.444 0.       0.        0.      0.       100.    1.       0.     0.      0.      0.        0
  43 bus-43  100   1  1    1.    -16.78 39.      9.        0.      0.       100.    1.       0.     0.      0.      0.        0
  44 bus-44  100   1  1    1.008 -17.46 195.     29.       0.      0.       100.    1.       0.     0.      0.      0.        0
  45 bus-45  100   1  1    1.021 -14.73 0.       0.        0.      0.       100.    1.       0.     0.      0.      0.        0
  46 bus-46  100   1  1    1.034 -11.75 0.       0.        0.      0.       100.    1.       0.     0.      0.      0.        0
  47 bus-47  100   1  1    0.977 -23.16 58.      11.8      0.      0.       100.    1.       0.     0.      0.      0.        0
  48 bus-48  100   1  1    1.001 -16.09 41.      19.       0.      0.       100.    1.       0.     0.      0.      0.        0
  49 bus-49  100   1  1    1.047 -2.948 92.      26.       0.      0.       100.    1.       0.     0.      0.      0.        0
  51 bus-51  100   1  1    1.025 -8.151 -5.      5.        0.      0.       100.    1.       0.     0.      0.      0.        0
  52 bus-52  100   1  1    0.997 -11.86 61.      28.       0.      0.       100.    1.       0.     0.      0.      0.        0
  53 bus-53  100   1  1    0.995 -17.6  69.      3.        0.      0.       100.    1.       0.     0.      0.      0.        0
  54 bus-54  100   1  1    1.005 -16.25 10.      1.        0.      0.       100.    1.       0.     0.      0.      0.        0
  55 bus-55  100   1  1    1.015 -12.21 22.      10.       0.      0.       100.    1.       0.     0.      0.      0.        0
  57 bus-57  100   1  1    1.033 -7.998 98.      20.       0.      0.       100.    1.       0.     0.      0.      0.        0
  58 bus-58  100   1  1    0.991 -5.992 14.      1.        0.      0.       100.    1.       0.     0.      0.      0.        0
  59 bus-59  100   1  1    0.978 -5.286 218.     106.      0.      0.       100.    1.       0.     0.      0.      0.        0
  60 bus-60  100   1  1    1.024 -9.557 0.       0.        0.      0.       100.    1.       0.     0.      0.      0.        0
  61 bus-61  100   1  1    0.99  -3.467 227.     110.      0.      0.       100.    1.       0.     0.      0.      0.        0
  62 bus-62  100   1  1    1.016 -1.097 0.       0.        0.      0.       100.    1.       0.     0.      0.      0.        0
  63 bus-63  100   1  1  2 0.958 -17.62 70.      30.       0.      25.0016  100.    .9583   25.   -25.      0.      0.        0
  64 bus-64  100   1  1    0.947 -12.97 0.       0.        0.      0.       100.    1.       0.     0.      0.      0.        0
  69 bus-69  100   1  1    0.963 -25.66 0.       0.        0.      0.       100.    1.       0.     0.      0.      0.        0
  70 bus-70  100   1  1    0.951 -35.15 56.      20.       0.      0.       100.    1.       0.     0.      0.      0.        0
  71 bus-71  100   1  1    0.979 -29.87 116.     38.       0.      0.       100.    1.       0.     0.      0.      0.        0
  72 bus-72  100   1  1    0.969 -27.47 57.      19.       0.      0.       100.    1.       0.     0.      0.      0.        0
  73 bus-73  100   1  1    0.977 -25.76 224.     71.       0.      0.       100.    1.       0.     0.      0.      0.        0
  74 bus-74  100   1  1    0.996 -22.   0.       0.        0.      0.       100.    1.       0.     0.      0.      0.        0
  76 bus-76  100   1  1  2 0.963 -26.54 208.     107.      0.      34.84624 100.    .9632   35.    12.      0.      0.        0
  77 bus-77  100   1  1    0.983 -24.94 74.      28.       0.      0.       100.    1.       0.     0.      0.      0.        0
  78 bus-78  100   1  1    0.99  -24.05 0.       0.        0.      0.       100.    1.       0.     0.      0.      0.        0
  79 bus-79  100   1  1    0.982 -24.97 48.      14.       0.      0.       100.    1.       0.     0.      0.      0.        0
  80 bus-80  100   1  1    0.987 -24.97 28.      7.        0.      0.       100.    1.       0.     0.      0.      0.        0
  81 bus-81  100   1  1    1.034 -18.88 0.       0.        0.      0.       100.    1.       0.     0.      0.      0.        0
  84 bus-84  100   1  1  2 1.025 -17.16 37.      13.       375.    133.0695 100.    1.025  240.   -240.     0.      0.        0
  85 bus-85  100   1  1    0.987 -17.67 0.       0.        0.      0.       100.    1.       0.     0.      0.      0.        0
  86 bus-86  100   1  1    0.99  -14.18 0.       0.        0.      0.       100.    1.       0.     0.      0.      0.        0
  87 bus-87  100   1  1    0.992 -7.765 0.       0.        0.      0.       100.    1.       0.     0.      0.      0.        0
  88 bus-88  100   1  1    1.015 -20.95 0.       0.        0.      0.       100.    1.       0.     0.      0.      0.        0
  89 bus-89  100   1  1    1.031 -11.13 44.2     0.        0.      0.       100.    1.       0.     0.      0.      0.        0
  90 bus-90  100   1  1    1.027 -11.22 66.      0.        0.      0.       100.    1.       0.     0.      0.      0.        0
  91 bus-91  100   1  1  2 1.052 -9.402 17.4     0.        155.    43.93155 100.    1.052   96.   -11.      0.      0.        0
  92 bus-92  100   1  1  2 1.052 -6.198 15.8     0.        290.    30.96216 100.    1.052  153.   -153.     0.      0.        0
  94 bus-94  100   1  1    0.993 -9.419 60.3     0.        0.      0.       100.    1.       0.     0.      0.      0.        0
  97 bus-97  100   1  1    1.018 -13.23 39.9     0.        0.      0.       100.    1.       0.     0.      0.      0.        0
  98 bus-98  100   1  1  2 1.    -14.6  66.7     0.        68.     -10.7786 100.    1.      56.   -30.      0.      0.        0
  99 bus-99  100   1  1    0.989 -20.26 83.5     0.        0.      0.       100.    1.       0.     0.      0.      0.        0
 100 bus-100 100   1  1    1.006 -14.44 0.       0.        0.      0.       100.    1.       0.     0.      0.      0.        0
 102 bus-102 100   1  1    1.    -15.23 77.8     0.        0.      0.       100.    1.       0.     0.      0.      0.        0
 103 bus-103 100   1  1    1.028 -12.06 32.      0.        0.      0.       100.    1.       0.     0.      0.      0.        0
 104 bus-104 100   1  1    0.995 -17.32 8.6      0.        0.      0.       100.    1.       0.     0.      0.      0.        0
 105 bus-105 100   1  1    1.022 -12.94 49.6     0.        0.      0.       100.    1.       0.     0.      0.      0.        0
 107 bus-107 100   1  1    1.009 -16.02 4.6      0.        0.      0.       100.    1.       0.     0.      0.      0.        0
 108 bus-108 100   1  1  2 0.99  -20.25 112.1    0.        117.    20.41651 100.    .99     77.   -24.      0.      0.        0
 109 bus-109 100   1  1    0.974 -26.06 30.7     0.        0.      0.       100.    1.       0.     0.      0.      0.        0
 110 bus-110 100   1  1    0.973 -24.72 63.      0.        0.      0.       100.    1.       0.     0.      0.      0.        0
 112 bus-112 100   1  1    0.972 -28.69 19.6     0.        0.      0.       100.    1.       0.     0.      0.      0.        0
 113 bus-113 100   1  1    0.97  -25.38 26.2     0.        0.      0.       100.    1.       0.     0.      0.      0.        0
 114 bus-114 100   1  1    0.974 -28.58 18.2     0.        0.      0.       100.    1.       0.     0.      0.      0.        0
 115 bus-115 100   1  1    0.96  -13.57 0.       0.        0.      0.       100.    1.       0.     0.      0.      0.        0
 116 bus-116 100   1  1    1.024 -12.68 0.       0.        0.      0.       100.    1.       0.     0.      0.      0.        0
 117 bus-117 100   1  1    0.934 -4.72  0.       0.        0.      0.       100.    1.       0.     0.      0.      3.25      0
 118 bus-118 100   1  1    0.929 -4.123 14.1     650.      0.      0.       100.    1.       0.     0.      0.      0.        0
 119 bus-119 100   1  1  2 1.043 5.1658 0.       0.        1930.   1050.714 100.    1.0435 1500.  -500.     0.      0.        0
 120 bus-120 100   1  1    0.958 -8.77  777.     215.      0.      0.       100.    1.       0.     0.      0.      0.55      0
 121 bus-121 100   1  1    0.987 -12.63 535.     55.       0.      0.       100.    1.       0.     0.      0.      0.        0
 122 bus-122 100   1  1    0.972 -14.36 229.1    11.8      0.      0.       100.    1.       0.     0.      0.      0.        0
 123 bus-123 100   1  1    1.    -17.63 78.      1.4       0.      0.       100.    1.       0.     0.      0.      0.        0
 124 bus-124 100   1  1  2 1.023 -13.48 276.4    59.3      240.    119.9518 100.    1.0233 120.   -60.      0.      0.        0
 125 bus-125 100   1  1  2 1.01  -18.42 514.8    82.7      0.      199.8787 100.    1.0103 200.   -25.      0.      0.        0
 126 bus-126 100   1  1    0.997 -12.86 57.9     5.1       0.      0.       100.    1.       0.     0.      0.      0.        0
 127 bus-127 100   1  1    1.    -10.52 380.8    37.       0.      0.       100.    1.       0.     0.      0.      0.        0
 128 bus-128 100   1  1    1.002 -4.777 0.       0.        0.      0.       100.    1.       0.     0.      0.      0.        0
 129 bus-129 100   1  1    1.002 -4.398 0.       0.        0.      0.       100.    1.       0.     0.      0.      0.        0
 130 bus-130 100   1  1    1.019 5.5584 0.       0.        0.      0.       100.    1.       0.     0.      0.      0.        0
 131 bus-131 100   1  1    0.986 6.0552 0.       0.        0.      0.       100.    1.       0.     0.      0.      0.        0
 132 bus-132 100   1  1    1.004 3.0442 0.       0.        0.      0.       100.    1.       0.     0.      0.      0.        0
 133 bus-133 100   1  1    1.002 -5.46  0.       0.        0.      0.       100.    1.       0.     0.      0.      0.        0
 134 bus-134 100   1  1    1.022 -8.044 0.       0.        0.      0.       100.    1.       0.     0.      0.      0.        0
 135 bus-135 100   1  1    1.019 -6.755 169.2    41.6      0.      0.       100.    1.       0.     0.      0.      0.        0
 136 bus-136 100   1  1    1.047 1.5407 55.2     18.2      0.      0.       100.    1.       0.     0.      0.      0.        0
 137 bus-137 100   1  1    1.047 -1.454 273.6    99.8      0.      0.       100.    1.       0.     0.      0.      0.        0
 138 bus-138 100   1  1  2 1.055 -6.353 826.7    135.2     -192.5  228.6131 100.    1.055  350.   -125.     0.      0.        0
 139 bus-139 100   1  1    1.011 -3.568 595.     83.3      0.      0.       100.    1.       0.     0.      0.      0.        0
 140 bus-140 100   1  1    1.043 -3.435 387.7    114.7     0.      0.       100.    1.       0.     0.      0.      0.        0
 141 bus-141 100   1  1  2 1.051 0.0495 145.     58.       281.    65.09697 100.    1.051   75.   -50.      0.      0.        0
 142 bus-142 100   1  1    1.015 -2.768 56.5     24.5      0.      0.       100.    1.       0.     0.      0.      0.        0
 143 bus-143 100   1  1  2 1.043 4.0331 89.5     35.5      696.    123.8299 100.    1.0435 300.   -100.     0.      0.        0
 144 bus-144 100   1  1    1.016 -0.695 0.       0.        0.      0.       100.    1.       0.     0.      0.      0.        0
 145 bus-145 100   1  1    1.008 -0.156 24.      14.       0.      0.       100.    1.       0.     0.      0.      0.        0
 146 bus-146 100   1  1  2 1.052 4.3212 0.       0.        84.     34.99789 100.    1.0528  35.   -15.      0.      0.        0
 147 bus-147 100   1  1  2 1.052 8.3635 0.       0.        217.    -49.9655 100.    1.0528 100.   -50.      0.      0.        0
 148 bus-148 100   1  1    1.057 0.2778 63.      25.       0.      0.       100.    1.       0.     0.      0.      0.        0
 149 bus-149 100   1  1  2 1.073 5.2293 0.       0.        103.    49.96859 100.    1.0735  50.   -25.      0.      0.        0
 150 bus-150 100   1  1    0.986 6.3363 0.       0.        0.      0.       100.    1.       0.     0.      0.      0.        0
 151 bus-151 100   1  1    1.004 4.131  0.       0.        0.      0.       100.    1.       0.     0.      0.      0.        0
 152 bus-152 100   1  1  2 1.053 9.2416 17.      9.        372.    -49.9257 100.    1.0535 175.   -50.      0.      0.        0
 153 bus-153 100   1  1  2 1.043 10.461 0.       0.        216.    -23.8674 100.    1.0435  90.   -50.      0.      0.        0
 154 bus-154 100   1  1    0.966 -1.798 70.      5.        0.      0.       100.    1.       0.     0.      0.      0.345     0
 155 bus-155 100   1  1    1.017 6.7514 200.     50.       0.      0.       100.    1.       0.     0.      0.      0.        0
 156 bus-156 100   1  1  2 0.963 5.146  75.      50.       0.      14.94153 100.    .963    15.   -10.      0.      0.        0
 157 bus-157 100   1  1    0.984 -11.92 123.5    -24.3     0.      0.       100.    1.       0.     0.      0.      0.        0
 158 bus-158 100   1  1    0.998 -11.4  0.       0.        0.      0.       100.    1.       0.     0.      0.      0.        0
 159 bus-159 100   1  1    0.986 -9.819 33.      16.5      0.      0.       100.    1.       0.     0.      0.      0.        0
 160 bus-160 100   1  1    0.999 -12.55 0.       0.        0.      0.       100.    1.       0.     0.      0.      0.        0
 161 bus-161 100   1  1    1.036 8.8443 35.      15.       0.      0.       100.    1.       0.     0.      0.      0.        0
 162 bus-162 100   1  1    0.991 18.5   85.      24.       0.      0.       100.    1.       0.     0.      0.      0.        0
 163 bus-163 100   1  1    1.041 2.9065 0.       0.4       0.      0.       100.    1.       0.     0.      0.      0.        0
 164 bus-164 100   1  1    0.984 9.6612 0.       0.        0.      0.       100.    1.       0.     0.      0.     -2.12      0
 165 bus-165 100   1  1    1.    26.307 0.       0.        0.      0.       100.    1.       0.     0.      0.      0.        0
 166 bus-166 100   1  1    0.997 30.219 0.       0.        0.      0.       100.    1.       0.     0.      0.     -1.03      0
 167 bus-167 100   1  1    0.971 -6.906 299.9    95.7      0.      0.       100.    1.       0.     0.      0.      0.        0
 168 bus-168 100   1  1    1.002 -4.8   0.       0.        0.      0.       100.    1.       0.     0.      0.      0.        0
 169 bus-169 100   1  1    0.987 -6.677 0.       0.        0.      0.       100.    1.       0.     0.      0.      0.        0
 170 bus-170 100   1  1  2 0.928 0.0878 481.8    205.      205.    90.      100.    .929    90.   -40.      0.      0.        0
 171 bus-171 100   1  1  2 0.982 -9.935 763.6    291.1     0.      150.     100.    .9829  150.   -50.      0.      0.        0
 172 bus-172 100   1  1    1.024 -6.223 26.5     0.        0.      0.       100.    1.       0.     0.      0.      0.        0
 173 bus-173 100   1  1    0.983 -12.75 163.5    43.       0.      0.       100.    1.       0.     0.      0.      0.53      0
 174 bus-174 100   1  1    1.062 -2.69  0.       0.        0.      0.       100.    1.       0.     0.      0.      0.        0
 175 bus-175 100   1  1    0.973 -7.207 176.     83.       0.      0.       100.    1.       0.     0.      0.      0.        0
 176 bus-176 100   1  1  2 1.052 4.6644 5.       4.        228.    39.71624 100.    1.0522  90.   -45.      0.      0.        0
 177 bus-177 100   1  1  2 1.007 0.6186 28.      12.       84.     34.98978 100.    1.0077  35.   -15.      0.      0.        0
 178 bus-178 100   1  1    0.939 -6.564 427.4    173.6     0.      0.       100.    1.       0.     0.      0.      0.        0
 179 bus-179 100   1  1    0.969 -9.364 74.      29.       0.      0.       100.    1.       0.     0.      0.      0.45      0
 180 bus-180 100   1  1    0.979 -3.092 69.5     49.3      0.      0.       100.    1.       0.     0.      0.      0.        0
 181 bus-181 100   1  1    1.051 -1.325 73.4     0.        0.      0.       100.    1.       0.     0.      0.      0.        0
 182 bus-182 100   1  1    1.044 -4.188 240.7    89.       0.      0.       100.    1.       0.     0.      0.      0.        0
 183 bus-183 100   1  1    0.971 7.1225 40.      4.        0.      0.       100.    1.       0.     0.      0.      0.        0
 184 bus-184 100   1  1    1.038 -6.846 136.8    16.6      0.      0.       100.    1.       0.     0.      0.      0.        0
 185 bus-185 100   1  1  2 1.052 -4.331 0.       0.        200.    33.2718  100.    1.0522  80.   -50.      0.      0.        0
 186 bus-186 100   1  1  2 1.065 2.1718 59.8     24.3      1200.   237.2665 100.    1.065  400.   -100.     0.      0.        0
 187 bus-187 100   1  1  2 1.065 1.3964 59.8     24.3      1200.   278.3229 100.    1.065  400.   -100.     0.      0.        0
 188 bus-188 100   1  1    1.053 -0.723 182.6    43.6      0.      0.       100.    1.       0.     0.      0.      0.        0
 189 bus-189 100   1  1    0.997 -25.84 7.       2.        0.      0.       100.    1.       0.     0.      0.      0.        0
 190 bus-190 100   1  1  2 1.055 -20.61 0.       0.        475.    -66.3441 100.    1.0551 300.   -300.     0.     -1.5       0
 191 bus-191 100   1  1  2 1.043 12.248 489.     53.       1973.   692.0735 100.    1.0435 1000.  -1000.    0.      0.        0
 192 bus-192 100   1  1    0.937 -11.18 800.     72.       0.      0.       100.    1.       0.     0.      0.      0.        0
 193 bus-193 100   1  1    0.989 -26.09 0.       0.        0.      0.       100.    1.       0.     0.      0.      0.        0
 194 bus-194 100   1  1    1.048 -19.21 0.       0.        0.      0.       100.    1.       0.     0.      0.      0.        0
 195 bus-195 100   1  1    1.035 -20.78 0.       0.        0.      0.       100.    1.       0.     0.      0.      0.        0
 196 bus-196 100   1  1    0.969 -25.31 10.      3.        0.      0.       100.    1.       0.     0.      0.      0.        0
 197 bus-197 100   1  1    0.99  -23.71 43.      14.       0.      0.       100.    1.       0.     0.      0.      0.        0
 198 bus-198 100   1  1  2 1.015 -20.58 64.      21.       424.    100.9815 100.    1.015  260.   -260.     0.      0.        0
 199 bus-199 100   1  1    0.952 -26.04 35.      12.       0.      0.       100.    1.       0.     0.      0.      0.        0
 200 bus-200 100   1  1    0.955 -25.93 27.      12.       0.      0.       100.    1.       0.     0.      0.      0.        0
 201 bus-201 100   1  1    0.969 -27.48 41.      14.       0.      0.       100.    1.       0.     0.      0.      0.        0
 202 bus-202 100   1  1    0.99  -25.33 38.      13.       0.      0.       100.    1.       0.     0.      0.      0.        0
 203 bus-203 100   1  1    1.003 -22.35 42.      14.       0.      0.       100.    1.       0.     0.      0.      0.        0
 204 bus-204 100   1  1    0.971 -25.7  72.      24.       0.      0.       100.    1.       0.     0.      0.      0.        0
 205 bus-205 100   1  1    0.983 -26.06 0.       -5.       0.      0.       100.    1.       0.     0.      0.      0.        0
 206 bus-206 100   1  1    0.999 -27.41 12.      2.        0.      0.       100.    1.       0.     0.      0.      0.        0
 207 bus-207 100   1  1    1.013 -27.44 -21.     -14.2     0.      0.       100.    1.       0.     0.      0.      0.        0
 208 bus-208 100   1  1    0.992 -26.27 7.       2.        0.      0.       100.    1.       0.     0.      0.      0.        0
 209 bus-209 100   1  1    1.    -25.65 38.      13.       0.      0.       100.    1.       0.     0.      0.      0.        0
 210 bus-210 100   1  1    0.978 -24.22 0.       0.        0.      0.       100.    1.       0.     0.      0.      0.        0
 211 bus-211 100   1  1    1.001 -23.31 96.      7.        0.      0.       100.    1.       0.     0.      0.      0.        0
 212 bus-212 100   1  1    1.013 -22.5  0.       0.        0.      0.       100.    1.       0.     0.      0.      0.        0
 213 bus-213 100   1  1  2 1.01  -11.67 0.       0.        272.    44.05064 100.    1.01   150.   -150.     0.      0.        0
 214 bus-214 100   1  1    0.991 -17.53 22.      16.       0.      0.       100.    1.       0.     0.      0.      0.        0
 215 bus-215 100   1  1    0.986 -20.23 47.      26.       0.      0.       100.    1.       0.     0.      0.      0.        0
 216 bus-216 100   1  1    0.975 -22.52 176.     105.      0.      0.       100.    1.       0.     0.      0.      0.        0
 217 bus-217 100   1  1    1.021 -22.19 100.     75.       0.      0.       100.    1.       0.     0.      0.      0.        0
 218 bus-218 100   1  1    1.007 -22.62 131.     96.       0.      0.       100.    1.       0.     0.      0.      0.        0
 219 bus-219 100   1  1    1.055 -21.14 0.       0.        0.      0.       100.    1.       0.     0.      0.      0.        0
 220 bus-220 100   1  1  2 1.008 -21.72 285.     100.      100.    35.78405 100.    1.008   60.   -60.      0.      0.        0
 221 bus-221 100   1  1  2 1.    -22.48 171.     70.       450.    160.3407 100.    1.     320.   -320.     0.      0.        0
...
-999
BRANCH DATA FOLLOWS                  361 ITEMS
9005 9001  1  1      0.0008    0.00348     0.     0    0     0      0    0  0      0      0      0       0      0      0
9005 9051  1  1   2  0.01578   0.37486     0.     0    0     0      0    0  1.0435 0      0      0       0      0      0
9005 9053  1  1   2  0.01602   0.38046     0.     0    0     0      0    0  1.0435 0      0      0       0      0      0
9005 9054  1  1   2  0.        0.152       0.     0    0     0      0    0  1.0435 0      0      0       0      0      0
9005 9055  1  1   2  0.        0.8         0.     0    0     0      0    0  1.0435 0      0      0       0      0      0
9007 9006  1  1      0.05558   0.24666     0.     0    0     0      0    0  0      0      0      0       0      0      0
9003 9006  1  1      0.11118   0.49332     0.     0    0     0      0    0  0      0      0      0       0      0      0
9003 9006  1  1      0.11118   0.49332     0.     0    0     0      0    0  0      0      0      0       0      0      0
9002 9012  1  1      0.07622   0.43286     0.     0    0     0      0    0  0      0      0      0       0      0      0
9002 9012  1  1      0.07622   0.43286     0.     0    0     0      0    0  0      0      0      0       0      0      0
9021 9002  1  1      0.0537    0.07026     0.     0    0     0      0    0  0      0      0      0       0      0      0
9023 9021  1  1      1.1068    0.95278     0.     0    0     0      0    0  0      0      0      0       0      0      0
9021 9022  1  1   2  0.44364   2.8152      0.     0    0     0      0    0  1.     0      0      0       0      0      0
9002 9024  1  1   2  0.50748   3.2202      0.     0    0     0      0    0  1.     0      0      0       0      0      0
9023 9025  1  1   2  0.66688   3.944       0.     0    0     0      0    0  1.     0      0      0       0      0      0
9023 9026  1  1   2  0.6113    3.6152      0.     0    0     0      0    0  1.     0      0      0       0      0      0
9007 9071  1  1   2  0.4412    2.9668      0.     0    0     0      0    0  1.     0      0      0       0      0      0
9007 9072  1  1   2  0.30792   2.057       0.     0    0     0      0    0  1.     0      0      0       0      0      0
9003 9007  1  1      0.0558    0.24666     0.     0    0     0      0    0  0      0      0      0       0      0      0
9003 9031  1  1   2  0.73633   4.6724      0.     0    0     0      0    0  1.     0      0      0       0      0      0
9003 9032  1  1   2  0.76978   4.8846      0.     0    0     0      0    0  1.     0      0      0       0      0      0
9003 9033  1  1   2  0.75732   4.8056      0.     0    0     0      0    0  1.     0      0      0       0      0      0
9044 9003  1  1      0.07378   0.06352     0.     0    0     0      0    0  0      0      0      0       0      0      0
9004 9044  1  1      0.03832   0.02894     0.     0    0     0      0    0  0      0      0      0       0      0      0
9004 9041  1  1   2  0.36614   2.456       0.     0    0     0      0    0  1.     0      0      0       0      0      0
9004 9042  1  1   2  1.0593    5.4536      0.     0    0     0      0    0  1.     0      0      0       0      0      0
9004 9043  1  1   2  0.1567    1.6994      0.     0    0     0      0    0  1.     0      0      0       0      0      0
9003 9034  1  1   2  0.13006   1.3912      0.     0    0     0      0    0  1.     0      0      0       0      0      0
9003 9035  1  1   2  0.54484   3.4572      0.     0    0     0      0    0  1.     0      0      0       0      0      0
9003 9036  1  1   2  0.15426   1.6729      0.     0    0     0      0    0  1.     0      0      0       0      0      0
9003 9037  1  1   2  0.3849    2.5712      0.     0    0     0      0    0  1.     0      0      0       0      0      0
9003 9038  1  1   2  0.4412    2.9668      0.     0    0     0      0    0  1.     0      0      0       0      0      0
9121 9012  1  1      0.23552   0.99036     0.     0    0     0      0    0  0      0      0      0       0      0      0
9053 9533  1  1   2  0.        0.75        0.     0    0     0      0    0  0.9583 0      0      0       0      0      0
   5    1  1  1      0.001     0.006       0.     0    0     0      0    0  0      0      0      0       0      0      0
   6    2  1  1      0.001     0.009       0.     0    0     0      0    0  0      0      0      0       0      0      0
   8    2  1  1      0.006     0.027       0.054  0    0     0      0    0  0      0      0      0       0      0      0
   7    3  1  1      0.        0.003       0.     0    0     0      0    0  0      0      0      0       0      0      0
  19    3  1  1      0.008     0.069       0.139  0    0     0      0    0  0      0      0      0       0      0      0
 150    3  1  1      0.001     0.007       0.     0    0     0      0    0  0      0      0      0       0      0      0
  16    4  1  1      0.002     0.019       1.127  0    0     0      0    0  0      0      0      0       0      0      0
   9    5  1  1      0.006     0.029       0.018  0    0     0      0    0  0      0      0      0       0      0      0
  12    7  1  1      0.001     0.009       0.07   0    0     0      0    0  0      0      0      0       0      0      0
 131    7  1  1      0.001     0.007       0.014  0    0     0      0    0  0      0      0      0       0      0      0
  11    8  1  1      0.013     0.0595      0.033  0    0     0      0    0  0      0      0      0       0      0      0
  14    8  1  1      0.013     0.042       0.081  0    0     0      0    0  0      0      0      0       0      0      0
  11    9  1  1      0.006     0.027       0.013  0    0     0      0    0  0      0      0      0       0      0      0
  13   11  1  1      0.008     0.034       0.018  0    0     0      0    0  0      0      0      0       0      0      0
  21   12  1  1      0.002     0.015       0.118  0    0     0      0    0  0      0      0      0       0      0      0
  20   13  1  1      0.006     0.034       0.016  0    0     0      0    0  0      0      0      0       0      0      0
  15   14  1  1      0.014     0.042       0.097  0    0     0      0    0  0      0      0      0       0      0      0
  37   15  1  1      0.065     0.248       0.121  0    0     0      0    0  0      0      0      0       0      0      0
  89   15  1  1      0.099     0.248       0.035  0    0     0      0    0  0      0      0      0       0      0      0
  90   15  1  1      0.096     0.363       0.048  0    0     0      0    0  0      0      0      0       0      0      0
  42   16  1  1      0.002     0.022       1.28   0    0     0      0    0  0      0      0      0       0      0      0
  21   19  1  1      0.002     0.018       0.036  0    0     0      0    0  0      0      0      0       0      0      0
  87   19  1  1      0.013     0.08        0.151  0    0     0      0    0  0      0      0      0       0      0      0
  22   20  1  1      0.016     0.033       0.015  0    0     0      0    0  0      0      0      0       0      0      0
  27   20  1  1      0.069     0.186       0.098  0    0     0      0    0  0      0      0      0       0      0      0
  24   21  1  1      0.004     0.034       0.28   0    0     0      0    0  0      0      0      0       0      0      0
  23   22  1  1      0.052     0.111       0.05   0    0     0      0    0  0      0      0      0       0      0      0
  25   23  1  1      0.019     0.039       0.018  0    0     0      0    0  0      0      0      0       0      0      0
 319   24  1  1      0.007     0.068       0.134  0    0     0      0    0  0      0      0      0       0      0      0
  26   25  1  1      0.036     0.071       0.034  0    0     0      0    0  0      0      0      0       0      0      0
  27   26  1  1      0.045     0.12        0.065  0    0     0      0    0  0      0      0      0       0      0      0
 320   26  1  1      0.043     0.13        0.014  0    0     0      0    0  0      0      0      0       0      0      0
  34   33  1  1      0.        0.063       0.     0    0     0      0    0  0      0      0      0       0      0      0
  38   33  1  1      0.0025    0.012       0.013  0    0     0      0    0  0      0      0      0       0      0      0
  40   33  1  1      0.006     0.029       0.02   0    0     0      0    0  0      0      0      0       0      0      0
  41   33  1  1      0.007     0.043       0.026  0    0     0      0    0  0      0      0      0       0      0      0
  42   34  1  1      0.001     0.008       0.042  0    0     0      0    0  0      0      0      0       0      0      0
  72   35  1  1      0.012     0.06        0.008  0    0     0      0    0  0      0      0      0       0      0      0
  76   35  1  1      0.006     0.014       0.002  0    0     0      0    0  0      0      0      0       0      0      0
  77   35  1  1      0.01      0.029       0.003  0    0     0      0    0  0      0      0      0       0      0      0
  88   36  1  1      0.004     0.027       0.043  0    0     0      0    0  0      0      0      0       0      0      0
  38   37  1  1      0.008     0.047       0.008  0    0     0      0    0  0      0      0      0       0      0      0
  40   37  1  1      0.022     0.064       0.007  0    0     0      0    0  0      0      0      0       0      0      0
  41   37  1  1      0.01      0.036       0.02   0    0     0      0    0  0      0      0      0       0      0      0
  49   37  1  1      0.017     0.081       0.048  0    0     0      0    0  0      0      0      0       0      0      0
  89   37  1  1      0.102     0.254       0.033  0    0     0      0    0  0      0      0      0       0      0      0
  90   37  1  1      0.047     0.127       0.016  0    0     0      0    0  0      0      0      0       0      0      0
  41   38  1  1      0.008     0.037       0.02   0    0     0      0    0  0      0      0      0       0      0      0
  43   38  1  1      0.032     0.087       0.04   0    0     0      0    0  0      0      0      0       0      0      0
  42   39  1  1      0.0006    0.0064      0.404  0    0     0      0    0  0      0      0      0       0      0      0
  48   40  1  1      0.026     0.154       0.022  0    0     0      0    0  0      0      0      0       0      0      0
  42   41  1  1      0.        0.029       0.     0    0     0      0    0  0      0      0      0       0      0      0
  49   41  1  1      0.065     0.191       0.02   0    0     0      0    0  0      0      0      0       0      0      0
  51   41  1  1      0.031     0.089       0.036  0    0     0      0    0  0      0      0      0       0      0      0
  46   42  1  1      0.002     0.014       0.806  0    0     0      0    0  0      0      0      0       0      0      0
  44   43  1  1      0.026     0.072       0.035  0    0     0      0    0  0      0      0      0       0      0      0
  48   43  1  1      0.095     0.262       0.032  0    0     0      0    0  0      0      0      0       0      0      0
  53   43  1  1      0.013     0.039       0.016  0    0     0      0    0  0      0      0      0       0      0      0
  47   44  1  1      0.027     0.084       0.039  0    0     0      0    0  0      0      0      0       0      0      0
  54   44  1  1      0.028     0.084       0.037  0    0     0      0    0  0      0      0      0       0      0      0
  60   45  1  1      0.007     0.041       0.312  0    0     0      0    0  0      0      0      0       0      0      0
  74   45  1  1      0.009     0.054       0.411  0    0     0      0    0  0      0      0      0       0      0      0
  81   46  1  1      0.005     0.042       0.69   0    0     0      0    0  0      0      0      0       0      0      0
  73   47  1  1      0.052     0.145       0.073  0    0     0      0    0  0      0      0      0       0      0      0
 113   47  1  1      0.043     0.118       0.013  0    0     0      0    0  0      0      0      0       0      0      0
 107   48  1  1      0.025     0.062       0.007  0    0     0      0    0  0      0      0      0       0      0      0
  51   49  1  1      0.031     0.094       0.043  0    0     0      0    0  0      0      0      0       0      0      0
  52   51  1  1      0.037     0.109       0.049  0    0     0      0    0  0      0      0      0       0      0      0
  55   52  1  1      0.027     0.08        0.036  0    0     0      0    0  0      0      0      0       0      0      0
  54   53  1  1      0.025     0.073       0.035  0    0     0      0    0  0      0      0      0       0      0      0
  55   54  1  1      0.035     0.103       0.047  0    0     0      0    0  0      0      0      0       0      0      0
  57   55  1  1      0.065     0.169       0.082  0    0     0      0    0  0      0      0      0       0      0      0
  58   57  1  1      0.046     0.08        0.036  0    0     0      0    0  0      0      0      0       0      0      0
  63   57  1  1      0.159     0.537       0.071  0    0     0      0    0  0      0      0      0       0      0      0
  59   58  1  1      0.009     0.026       0.005  0    0     0      0    0  0      0      0      0       0      0      0
  61   59  1  1      0.002     0.013       0.015  0    0     0      0    0  0      0      0      0       0      0      0
  62   60  1  1      0.009     0.065       0.485  0    0     0      0    0  0      0      0      0       0      0      0
  64   62  1  1      0.016     0.105       0.203  0    0     0      0    0  0      0      0      0       0      0      0
 144   62  1  1      0.001     0.007       0.013  0    0     0      0    0  0      0      0      0       0      0      0
 526   63  1  1      0.0265    0.172       0.026  0    0     0      0    0  0      0      0      0       0      0      0
 211   69  1  1      0.051     0.232       0.028  0    0     0      0    0  0      0      0      0       0      0      0
  79   69  1  1      0.051     0.157       0.023  0    0     0      0    0  0      0      0      0       0      0      0
  71   70  1  1      0.032     0.1         0.062  0    0     0      0    0  0      0      0      0       0      0      0
 528   70  1  1      0.02      0.1234      0.028  0    0     0      0    0  0      0      0      0       0      0      0
  72   71  1  1      0.036     0.131       0.068  0    0     0      0    0  0      0      0      0       0      0      0
  73   71  1  1      0.034     0.099       0.047  0    0     0      0    0  0      0      0      0       0      0      0
  77   72  1  1      0.018     0.087       0.011  0    0     0      0    0  0      0      0      0       0      0      0
 531   72  1  1      0.0256    0.193       0.     0    0     0      0    0  0      0      0      0       0      0      0
  76   73  1  1      0.021     0.057       0.03   0    0     0      0    0  0      0      0      0       0      0      0
  79   73  1  1      0.018     0.052       0.018  0    0     0      0    0  0      0      0      0       0      0      0
  88   74  1  1      0.004     0.027       0.05   0    0     0      0    0  0      0      0      0       0      0      0
 562   74  1  1      0.0286    0.2013      0.379  0    0     0      0    0  0      0      0      0       0      0      0
  77   76  1  1      0.016     0.043       0.004  0    0     0      0    0  0      0      0      0       0      0      0
  78   77  1  1      0.001     0.006       0.007  0    0     0      0    0  0      0      0      0       0      0      0
  80   77  1  1      0.014     0.07        0.038  0    0     0      0    0  0      0      0      0       0      0      0
 552   77  1  1      0.0891    0.2676      0.029  0    0     0      0    0  0      0      0      0       0      0      0
 609   77  1  1      0.0782    0.2127      0.022  0    0     0      0    0  0      0      0      0       0      0      0
  79   78  1  1      0.006     0.022       0.011  0    0     0      0    0  0      0      0      0       0      0      0
  84   78  1  1      0.        0.036       0.     0    0     0      0    0  0      0      0      0       0      0      0
 211   79  1  1      0.099     0.375       0.051  0    0     0      0    0  0      0      0      0       0      0      0
 211   80  1  1      0.022     0.107       0.058  0    0     0      0    0  0      0      0      0       0      0      0
 194   81  1  1      0.0035    0.033       0.53   0    0     0      0    0  0      0      0      0       0      0      0
 195   81  1  1      0.0035    0.033       0.53   0    0     0      0    0  0      0      0      0       0      0      0
  86   85  1  1      0.008     0.064       0.128  0    0     0      0    0  0      0      0      0       0      0      0
  87   86  1  1      0.012     0.093       0.183  0    0     0      0    0  0      0      0      0       0      0      0
 323   86  1  1      0.006     0.048       0.092  0    0     0      0    0  0      0      0      0       0      0      0
  91   89  1  1      0.047     0.119       0.014  0    0     0      0    0  0      0      0      0       0      0      0
  92   90  1  1      0.032     0.174       0.024  0    0     0      0    0  0      0      0      0       0      0      0
  94   91  1  1      0.1       0.253       0.031  0    0     0      0    0  0      0      0      0       0      0      0
  97   91  1  1      0.022     0.077       0.039  0    0     0      0    0  0      0      0      0       0      0      0
 103   92  1  1      0.019     0.144       0.017  0    0     0      0    0  0      0      0      0       0      0      0
 105   92  1  1      0.017     0.092       0.012  0    0     0      0    0  0      0      0      0       0      0      0
  97   94  1  1      0.278     0.427       0.043  0    0     0      0    0  0      0      0      0       0      0      0
 100   97  1  1      0.022     0.053       0.007  0    0     0      0    0  0      0      0      0       0      0      0
 102   97  1  1      0.038     0.092       0.012  0    0     0      0    0  0      0      0      0       0      0      0
 103   97  1  1      0.048     0.122       0.015  0    0     0      0    0  0      0      0      0       0      0      0
 100   98  1  1      0.024     0.064       0.007  0    0     0      0    0  0      0      0      0       0      0      0
 102   98  1  1      0.034     0.121       0.015  0    0     0      0    0  0      0      0      0       0      0      0
 107   99  1  1      0.053     0.135       0.017  0    0     0      0    0  0      0      0      0       0      0      0
 108   99  1  1      0.002     0.004       0.002  0    0     0      0    0  0      0      0      0       0      0      0
 109   99  1  1      0.045     0.354       0.044  0    0     0      0    0  0      0      0      0       0      0      0
 110   99  1  1      0.05      0.174       0.022  0    0     0      0    0  0      0      0      0       0      0      0
 102  100  1  1      0.016     0.038       0.004  0    0     0      0    0  0      0      0      0       0      0      0
 104  102  1  1      0.043     0.064       0.027  0    0     0      0    0  0      0      0      0       0      0      0
 105  103  1  1      0.019     0.062       0.008  0    0     0      0    0  0      0      0      0       0      0      0
 108  104  1  1      0.076     0.13        0.044  0    0     0      0    0  0      0      0      0       0      0      0
 322  104  1  1      0.044     0.124       0.015  0    0     0      0    0  0      0      0      0       0      0      0
 107  105  1  1      0.012     0.088       0.011  0    0     0      0    0  0      0      0      0       0      0      0
 110  105  1  1      0.157     0.4         0.047  0    0     0      0    0  0      0      0      0       0      0      0
 324  108  1  1      0.074     0.208       0.026  0    0     0      0    0  0      0      0      0       0      0      0
 110  109  1  1      0.07      0.184       0.021  0    0     0      0    0  0      0      0      0       0      0      0
 113  109  1  1      0.1       0.274       0.031  0    0     0      0    0  0      0      0      0       0      0      0
 114  109  1  1      0.109     0.393       0.036  0    0     0      0    0  0      0      0      0       0      0      0
 112  110  1  1      0.142     0.404       0.05   0    0     0      0    0  0      0      0      0       0      0      0
 114  112  1  1      0.017     0.042       0.006  0    0     0      0    0  0      0      0      0       0      0      0
 122  115  1  1      0.0036    0.0199      0.004  0    0     0      0    0  0      0      0      0       0      0      0
 120  116  1  1      0.002     0.1049      0.001  0    0     0      0    0  0      0      0      0       0      0      0
 118  117  1  1      0.0001    0.0018      0.017  0    0     0      0    0  0      0      0      0       0      0      0
 119  118  1  1      0.        0.0271      0.     0    0     0      0    0  0      0      0      0       0      0      0
1201  118  1  1      0.        0.6163      0.     0    0     0      0    0  0      0      0      0       0      0      0
 120 1201  1  1      0.       -0.3697      0.     0    0     0      0    0  0      0      0      0       0      0      0
 121  118  1  1      0.0022    0.2915      0.     0    0     0      0    0  0      0      0      0       0      0      0
 120  119  1  1      0.        0.0339      0.     0    0     0      0    0  0      0      0      0       0      0      0
 121  119  1  1      0.        0.0582      0.     0    0     0      0    0  0      0      0      0       0      0      0
 123  122  1  1      0.0808    0.2344      0.029  0    0     0      0    0  0      0      0      0       0      0      0
 125  122  1  1      0.0965    0.3669      0.054  0    0     0      0    0  0      0      0      0       0      0      0
 124  123  1  1      0.036     0.1076      0.117  0    0     0      0    0  0      0      0      0       0      0      0
 125  123  1  1      0.0476    0.1414      0.149  0    0     0      0    0  0      0      0      0       0      0      0
 126  125  1  1      0.0006    0.0197      0.     0    0     0      0    0  0      0      0      0       0      0      0
 127  126  1  1      0.0059    0.0405      0.25   0    0     0      0    0  0      0      0      0       0      0      0
 129  126  1  1      0.0115    0.1106      0.185  0    0     0      0    0  0      0      0      0       0      0      0
 132  126  1  1      0.0198    0.1688      0.321  0    0     0      0    0  0      0      0      0       0      0      0
 157  126  1  1      0.005     0.05        0.33   0    0     0      0    0  0      0      0      0       0      0      0
 158  126  1  1      0.0077    0.0538      0.335  0    0     0      0    0  0      0      0      0       0      0      0
 169  126  1  1      0.0165    0.1157      0.171  0    0     0      0    0  0      0      0      0       0      0      0
 128  127  1  1      0.0059    0.0577      0.095  0    0     0      0    0  0      0      0      0       0      0      0
 134  127  1  1      0.0049    0.0336      0.208  0    0     0      0    0  0      0      0      0       0      0      0
 168  127  1  1      0.0059    0.0577      0.095  0    0     0      0    0  0      0      0      0       0      0      0
 130  128  1  1      0.0078    0.0773      0.126  0    0     0      0    0  0      0      0      0       0      0      0
 133  128  1  1      0.0026    0.0193      0.03   0    0     0      0    0  0      0      0      0       0      0      0
 130  129  1  1      0.0076    0.0752      0.122  0    0     0      0    0  0      0      0      0       0      0      0
 133  129  1  1      0.0021    0.0186      0.03   0    0     0      0    0  0      0      0      0       0      0      0
 132  130  1  1      0.0016    0.0164      0.026  0    0     0      0    0  0      0      0      0       0      0      0
 151  130  1  1      0.0017    0.0165      0.026  0    0     0      0    0  0      0      0      0       0      0      0
 167  130  1  1      0.0079    0.0793      0.127  0    0     0      0    0  0      0      0      0       0      0      0
 168  130  1  1      0.0078    0.0784      0.125  0    0     0      0    0  0      0      0      0       0      0      0
...
-999
LOSS ZONES FOLLOWS   0 ITEMS
-99
INTERCHANGE DATA FOLLOWS      0 ITEMS
-9
TIE LINES FOLLOWS             0 ITEMS
-999
END OF DATA
